Genera sistema
0 -106 283 302.2 3600
1 411 -303 510.617 3600
2 268 -223 348.645 3600
3 -23 128 130.05 3600
4 13 452 452.187 3600
5 135 217 255.566 3600
6 106 -484 495.471 3600
7 -363 304 473.482 3600
8 -100 -371 384.241 3600
9 498 -282 572.301 3600
guarda nodos generados en nodosOR
Inicia ciclo de asignación en gws h= 0
GW 0 839 612
0 -445 171 476.724
1 72 -415 421.199
2 -71 -335 342.441
3 -362 16 362.353
4 -326 340 471.037
5 -204 105 229.436
6 -233 -596 639.926
7 -702 192 727.783
8 -439 -483 652.694
9 159 -394 424.873
cambio coordenadas
asigna
SF7 0     0
SF8 0     0
SF9 1     1
SF10 6     6
SF11 3     3
SF12 0     0
NF 0
